tools/autotest/test_moutils.glm
// JSON to GLM Converter Output
// InputFile '/Users/david/GitHub/dchassin/gridlabd/tools/autotest/test_moutils.json'
// CreateDate '2024-12-26 10:24:30 '


// CLOCK
clock {
	timezone PST8PDT;
	starttime "1999-12-31 16:00:00 PST";
	stoptime "NEVER";
}

// MODULES
module powerflow
{
	show_matrix_values FALSE;
	primary_voltage_ratio +60 pu;
	nominal_frequency +60 Hz;
	require_voltage_control FALSE;
	geographic_degree +0;
	fault_impedance +1e-06+0j Ohm;
	ground_impedance +1e-06+0j Ohm;
	warning_underfrequency +55 Hz;
	warning_overfrequency +65 Hz;
	warning_undervoltage +0.8 V;
	warning_overvoltage +1.2 V;
	warning_voltageangle +2;
	maximum_voltage_error +0.0001 V;
	solver_method NR;
	NR_matrix_output_interval NEVER;
	NR_matrix_output_references FALSE;
	NR_matrix_output_rhs FALSE;
	NR_island_failure_handled FALSE;
	line_capacitance FALSE;
	line_limits FALSE;
	NR_iteration_limit 500;
	NR_deltamode_iteration_limit 10;
	NR_superLU_procs 1;
	default_maximum_voltage_error +0.0001 pu;
	default_maximum_power_error +0.0001 pu;
	NR_admit_change FALSE;
	enable_subsecond_models FALSE;
	all_powerflow_delta FALSE;
	deltamode_timestep +1e+07 ns;
	current_frequency +60 Hz;
	master_frequency_update FALSE;
	enable_frequency_dependence FALSE;
	default_resistance +0.0001 Ohm;
	enable_inrush FALSE;
	low_voltage_impedance_level +0.7 pu;
	enable_mesh_fault_current FALSE;
	convergence_error_handling FATAL;
	solver_profile_enable FALSE;
	solver_profile_filename solver_nr_profile.txt;
	solver_profile_headers_included TRUE;
	solver_headers timestamp,duration[microsec],iteration,bus_count,branch_count,error;
	solver_profile_csv FALSE;
	solver_py_config /usr/local/opt/gridlabd/4.3.11-241218-develop_tkinter_gui-darwin_23-x86_64/share/gridlabd/solver_py.conf;
	solver_dump_enable FALSE;
	violation_count 21;
	violation_active 21;
	violation_watchset ALL;
	voltage_violation_threshold +0.05 pu;
	undervoltage_violation_threshold +0 pu;
	overvoltage_violation_threshold +0 pu;
	voltage_fluctuation_threshold +0.03 pu;
	DER_violation_test ANY;
	default_continuous_rating +1000 A;
	default_emergency_rating +2000 A;
	default_violation_rating +0 A;
	market_price_name current_market.clearing_price;
	repair_time +24 h;
	wind_speed_name wind_speed;
	wind_dir_name wind_dir;
	wind_gust_name wind_gust;
	stop_on_pole_failure FALSE;
	climate_impact_zone NONE;
	building_defaults building_defaults.csv;
	building_loadshapes building_loadshapes.csv;
	building_occupancy building_occupancy.csv;
	inverter_settings inverter_settings.csv;
	NAICS_datafile naics_data_file.csv;
	ground_temperature +25 degC;
	warning_cable_temperature +80 degC;
	alert_cable_temperature +90 degC;
	ductbank_configuration_file ductbank_configurations.csv;
	air_effective_conductivity +0.2 W/K*m;
}

// GLOBALS
// version.major is set to 4
// version.minor is set to 3
// version.patch is set to 11
// version.build is set to 241218
// version.branch is set to develop_tkinter_gui
// version is set to 4.3.11-241218-develop_tkinter_gui
// command_line is set to /usr/local/opt/gridlabd/4.3.11-241218-develop_tkinter_gui-darwin_23-x86_64/bin/gridlabd.bin /Users/david/GitHub/dchassin/gridlabd/tools/autotest/test_moutils.json
#ifndef environment
#define environment=batch
#else
#set environment=batch
#endif //environment
#ifndef quiet
global bool quiet FALSE;
#else
#set quiet=FALSE
#endif //quiet
#ifndef warn
global bool warn TRUE;
#else
#set warn=TRUE
#endif //warn
#ifndef debugger
global bool debugger FALSE;
#else
#set debugger=FALSE
#endif //debugger
#ifndef gdb
global bool gdb FALSE;
#else
#set gdb=FALSE
#endif //gdb
#ifndef debug
global bool debug FALSE;
#else
#set debug=FALSE
#endif //debug
#ifndef test
global bool test FALSE;
#else
#set test=FALSE
#endif //test
#ifndef verbose
global bool verbose FALSE;
#else
#set verbose=FALSE
#endif //verbose
#ifndef iteration_limit
global int32 iteration_limit 100;
#else
#set iteration_limit=100
#endif //iteration_limit
// workdir is set to /Users/david/GitHub/dchassin/gridlabd/tools/autotest
#ifndef dumpfile
#define dumpfile=gridlabd.json
#else
#set dumpfile=gridlabd.json
#endif //dumpfile
#ifndef savefile
#define savefile=test_moutils.json
#else
#set savefile=test_moutils.json
#endif //savefile
#ifndef dumpall
global bool dumpall FALSE;
#else
#set dumpall=FALSE
#endif //dumpall
#ifndef runchecks
global bool runchecks FALSE;
#else
#set runchecks=FALSE
#endif //runchecks
#ifndef threadcount
global int32 threadcount 1;
#else
#set threadcount=1
#endif //threadcount
#ifndef profiler
global bool profiler FALSE;
#else
#set profiler=FALSE
#endif //profiler
#ifndef pauseatexit
global bool pauseatexit FALSE;
#else
#set pauseatexit=FALSE
#endif //pauseatexit
#ifndef testoutputfile
#define testoutputfile=test.txt
#else
#set testoutputfile=test.txt
#endif //testoutputfile
#ifndef xml_encoding
global int32 xml_encoding 8;
#else
#set xml_encoding=8
#endif //xml_encoding
#ifndef clock
global timestamp clock "1999-12-31 16:00:00 PST";
#else
#set clock=1999-12-31 16:00:00 PST
#endif //clock
#ifndef starttime
global timestamp starttime "1999-12-31 16:00:00 PST";
#else
#set starttime=1999-12-31 16:00:00 PST
#endif //starttime
#ifndef stoptime
global timestamp stoptime "NEVER";
#else
#set stoptime=NEVER
#endif //stoptime
#ifndef double_format
global char32 double_format "%+lg";
#else
#set double_format=%+lg
#endif //double_format
#ifndef complex_format
global char256 complex_format "%+lg%+lg%c";
#else
#set complex_format=%+lg%+lg%c
#endif //complex_format
#ifndef complex_output_format
global enumeration complex_output_format DEFAULT;
#else
#set complex_output_format=DEFAULT
#endif //complex_output_format
#ifndef object_format
global char32 object_format "%s:%d";
#else
#set object_format=%s:%d
#endif //object_format
#ifndef object_scan
global char32 object_scan "%[^:]:%d";
#else
#set object_scan=%[^:]:%d
#endif //object_scan
#ifndef object_tree_balance
global bool object_tree_balance FALSE;
#else
#set object_tree_balance=FALSE
#endif //object_tree_balance
// kmlfile is set to 
#ifndef kmlhost
#define kmlhost=https://code.gridlabd.us/develop_tkinter_gui/runtime
#else
#set kmlhost=https://code.gridlabd.us/develop_tkinter_gui/runtime
#endif //kmlhost
// modelname is set to /Users/david/GitHub/dchassin/gridlabd/tools/autotest/test_moutils.json
// execdir is set to /usr/local/opt/gridlabd/4.3.11-241218-develop_tkinter_gui-darwin_23-x86_64/bin
#ifndef strictnames
global bool strictnames FALSE;
#else
#set strictnames=FALSE
#endif //strictnames
#ifndef website
#define website=http://www.gridlabd.org/
#else
#set website=http://www.gridlabd.org/
#endif //website
#ifndef urlbase
#define urlbase=http://www.gridlabd.org/
#else
#set urlbase=http://www.gridlabd.org/
#endif //urlbase
#ifndef randomstate
global int32 randomstate 198741735;
#else
#set randomstate=198741735
#endif //randomstate
#ifndef randomseed
global int32 randomseed -670363224;
#else
#set randomseed=-670363224
#endif //randomseed
// include is set to 
// trace is set to 
#ifndef gdb_window
global bool gdb_window FALSE;
#else
#set gdb_window=FALSE
#endif //gdb_window
#ifndef tmp
#define tmp=/Users/david/.gridlabd/tmp
#else
#set tmp=/Users/david/.gridlabd/tmp
#endif //tmp
#ifndef force_compile
global int32 force_compile 0;
#else
#set force_compile=0
#endif //force_compile
#ifndef nolocks
global bool nolocks FALSE;
#else
#set nolocks=FALSE
#endif //nolocks
#ifndef skipsafe
global bool skipsafe FALSE;
#else
#set skipsafe=FALSE
#endif //skipsafe
#ifndef dateformat
global enumeration dateformat ISO;
#else
#set dateformat=ISO
#endif //dateformat
#ifndef init_sequence
global enumeration init_sequence DEFERRED;
#else
#set init_sequence=DEFERRED
#endif //init_sequence
#ifndef minimum_timestep
global int32 minimum_timestep 1;
#else
#set minimum_timestep=1
#endif //minimum_timestep
// platform is set to MACOSX
#ifndef suppress_repeat_messages
global bool suppress_repeat_messages TRUE;
#else
#set suppress_repeat_messages=TRUE
#endif //suppress_repeat_messages
#ifndef maximum_synctime
global int32 maximum_synctime 60;
#else
#set maximum_synctime=60
#endif //maximum_synctime
#ifndef run_realtime
global bool run_realtime FALSE;
#else
#set run_realtime=FALSE
#endif //run_realtime
#ifndef enter_realtime
global timestamp enter_realtime "NEVER";
#else
#set enter_realtime=NEVER
#endif //enter_realtime
// realtime_metric is set to +0
#ifndef no_deprecate
global bool no_deprecate FALSE;
#else
#set no_deprecate=FALSE
#endif //no_deprecate
// streaming_io is set to FALSE
// compileonly is set to FALSE
// initializeonly is set to FALSE
#ifndef relax_naming_rules
global bool relax_naming_rules FALSE;
#else
#set relax_naming_rules=FALSE
#endif //relax_naming_rules
#ifndef browser
#define browser=safari
#else
#set browser=safari
#endif //browser
#ifndef server_portnum
global int32 server_portnum 0;
#else
#set server_portnum=0
#endif //server_portnum
#ifndef server_quit_on_close
global bool server_quit_on_close FALSE;
#else
#set server_quit_on_close=FALSE
#endif //server_quit_on_close
// client_allowed is set to 
#ifndef autoclean
global bool autoclean TRUE;
#else
#set autoclean=TRUE
#endif //autoclean
#ifndef technology_readiness_level
global enumeration technology_readiness_level UNKNOWN;
#else
#set technology_readiness_level=UNKNOWN
#endif //technology_readiness_level
#ifndef show_progress
global bool show_progress TRUE;
#else
#set show_progress=TRUE
#endif //show_progress
#ifndef checkpoint_type
global enumeration checkpoint_type NONE;
#else
#set checkpoint_type=NONE
#endif //checkpoint_type
// checkpoint_file is set to 
#ifndef checkpoint_seqnum
global int32 checkpoint_seqnum 0;
#else
#set checkpoint_seqnum=0
#endif //checkpoint_seqnum
#ifndef checkpoint_interval
global int32 checkpoint_interval 0;
#else
#set checkpoint_interval=0
#endif //checkpoint_interval
#ifndef checkpoint_keepall
global bool checkpoint_keepall FALSE;
#else
#set checkpoint_keepall=FALSE
#endif //checkpoint_keepall
#ifndef check_version
global bool check_version FALSE;
#else
#set check_version=FALSE
#endif //check_version
#ifndef random_number_generator
global enumeration random_number_generator RNG3;
#else
#set random_number_generator=RNG3
#endif //random_number_generator
#ifndef mainloop_state
global enumeration mainloop_state DONE;
#else
#set mainloop_state=DONE
#endif //mainloop_state
#ifndef pauseat
global timestamp pauseat "NEVER";
#else
#set pauseat=NEVER
#endif //pauseat
// infourl is set to http://docs.gridlabd.us/index.html?owner=arras-energy&project=gridlabd&search=
#ifndef hostname
#define hostname=localhost
#else
#set hostname=localhost
#endif //hostname
#ifndef hostaddr
global char32 hostaddr "127.0.0.1";
#else
#set hostaddr=127.0.0.1
#endif //hostaddr
#ifndef autostart_gui
global bool autostart_gui TRUE;
#else
#set autostart_gui=TRUE
#endif //autostart_gui
// master is set to 
#ifndef master_port
global int64 master_port 0;
#else
#set master_port=0
#endif //master_port
#ifndef multirun_mode
global enumeration multirun_mode STANDALONE;
#else
#set multirun_mode=STANDALONE
#endif //multirun_mode
#ifndef multirun_conn
global enumeration multirun_conn NONE;
#else
#set multirun_conn=NONE
#endif //multirun_conn
#ifndef signal_timeout
global int32 signal_timeout 5000;
#else
#set signal_timeout=5000
#endif //signal_timeout
#ifndef slave_port
global int16 slave_port 6267;
#else
#set slave_port=6267
#endif //slave_port
#ifndef slave_id
global int64 slave_id 0;
#else
#set slave_id=0
#endif //slave_id
// return_code is set to 0
// exit_code is set to 0
#ifndef module_compiler_flags
global set module_compiler_flags NONE;
#else
#set module_compiler_flags=NONE
#endif //module_compiler_flags
// init_max_defer is set to 64
#ifndef mt_analysis
global bool mt_analysis FALSE;
#else
#set mt_analysis=FALSE
#endif //mt_analysis
#ifndef inline_block_size
global int32 inline_block_size 1048576;
#else
#set inline_block_size=1048576
#endif //inline_block_size
#ifndef validate
global set validate TSTD|RALL;
#else
#set validate=TSTD|RALL
#endif //validate
#ifndef sanitize
global set sanitize NAMES|POSITIONS;
#else
#set sanitize=NAMES|POSITIONS
#endif //sanitize
#ifndef sanitize_prefix
global char8 sanitize_prefix "GLD_";
#else
#set sanitize_prefix=GLD_
#endif //sanitize_prefix
#ifndef sanitize_index
#define sanitize_index=.txt
#else
#set sanitize_index=.txt
#endif //sanitize_index
// sanitize_offset is set to 
#ifndef simulation_mode
global enumeration simulation_mode EVENT;
#else
#set simulation_mode=EVENT
#endif //simulation_mode
#ifndef deltamode_allowed
global bool deltamode_allowed FALSE;
#else
#set deltamode_allowed=FALSE
#endif //deltamode_allowed
#ifndef deltamode_timestep
global int32 deltamode_timestep 10000000;
#else
#set deltamode_timestep=10000000
#endif //deltamode_timestep
#ifndef deltamode_maximumtime
global int64 deltamode_maximumtime 3600000000000;
#else
#set deltamode_maximumtime=3600000000000
#endif //deltamode_maximumtime
#ifndef deltaclock
global int64 deltaclock 0;
#else
#set deltaclock=0
#endif //deltaclock
#ifndef delta_current_clock
global double delta_current_clock +0;
#else
#set delta_current_clock=+0
#endif //delta_current_clock
// deltamode_updateorder is set to powerflow
#ifndef deltamode_iteration_limit
global int32 deltamode_iteration_limit 10;
#else
#set deltamode_iteration_limit=10
#endif //deltamode_iteration_limit
#ifndef deltamode_forced_extra_timesteps
global int32 deltamode_forced_extra_timesteps 0;
#else
#set deltamode_forced_extra_timesteps=0
#endif //deltamode_forced_extra_timesteps
#ifndef deltamode_forced_always
global bool deltamode_forced_always FALSE;
#else
#set deltamode_forced_always=FALSE
#endif //deltamode_forced_always
#ifndef run_powerworld
global bool run_powerworld FALSE;
#else
#set run_powerworld=FALSE
#endif //run_powerworld
#ifndef bigranks
global bool bigranks TRUE;
#else
#set bigranks=TRUE
#endif //bigranks
// exename is set to /usr/local/opt/gridlabd/4.3.11-241218-develop_tkinter_gui-darwin_23-x86_64/bin/gridlabd.bin
#ifndef wget_options
#define wget_options=maxsize:100MB;update:newer
#else
#set wget_options=maxsize:100MB;update:newer
#endif //wget_options
#ifndef curl_options
#define curl_options=maxsize:100MB;update:newer
#else
#set curl_options=maxsize:100MB;update:newer
#endif //curl_options
#ifndef svnroot
#define svnroot=http://gridlab-d.svn.sourceforge.net/svnroot/gridlab-d
#else
#set svnroot=http://gridlab-d.svn.sourceforge.net/svnroot/gridlab-d
#endif //svnroot
#ifndef github
#define github=https://github.com/gridlab-d
#else
#set github=https://github.com/gridlab-d
#endif //github
#ifndef gitraw
#define gitraw=https://raw.githubusercontent.com/gridlab-d
#else
#set gitraw=https://raw.githubusercontent.com/gridlab-d
#endif //gitraw
#ifndef allow_reinclude
global bool allow_reinclude FALSE;
#else
#set allow_reinclude=FALSE
#endif //allow_reinclude
#ifndef output_message_context
global set output_message_context ALL;
#else
#set output_message_context=ALL
#endif //output_message_context
#ifndef permissive_access
global int32 permissive_access 0;
#else
#set permissive_access=0
#endif //permissive_access
#ifndef relax_undefined_if
global bool relax_undefined_if FALSE;
#else
#set relax_undefined_if=FALSE
#endif //relax_undefined_if
#ifndef literal_if
global bool literal_if TRUE;
#else
#set literal_if=TRUE
#endif //literal_if
#ifndef validto_context
global enumeration validto_context 1414746112;
#else
#set validto_context=1414746112
#endif //validto_context
#ifndef daemon_configfile
#define daemon_configfile=gridlabd.cnf
#else
#set daemon_configfile=gridlabd.cnf
#endif //daemon_configfile
// timezone_locale is set to PST8PDT
#ifndef glm_save_options
global set glm_save_options MINIMAL;
#else
#set glm_save_options=MINIMAL
#endif //glm_save_options
#ifndef filesave_options
global set filesave_options ALL;
#else
#set filesave_options=ALL
#endif //filesave_options
#ifndef ignore_errors
global bool ignore_errors FALSE;
#else
#set ignore_errors=FALSE
#endif //ignore_errors
#ifndef keep_progress
global bool keep_progress FALSE;
#else
#set keep_progress=FALSE
#endif //keep_progress
#ifndef allow_variant_aggregates
global bool allow_variant_aggregates FALSE;
#else
#set allow_variant_aggregates=FALSE
#endif //allow_variant_aggregates
// progress is set to +0
#ifndef server_keepalive
global bool server_keepalive FALSE;
#else
#set server_keepalive=FALSE
#endif //server_keepalive
#ifndef pythonpath
#define pythonpath=.:/usr/local/opt/gridlabd/4.3.11-241218-develop_tkinter_gui-darwin_23-x86_64/share/gridlabd:/usr/local/opt/gridlabd/4.3.11-241218-develop_tkinter_gui-darwin_23-x86_64/lib/gridlabd/python3.10/site-packages
#else
#set pythonpath=.:/usr/local/opt/gridlabd/4.3.11-241218-develop_tkinter_gui-darwin_23-x86_64/share/gridlabd:/usr/local/opt/gridlabd/4.3.11-241218-develop_tkinter_gui-darwin_23-x86_64/lib/gridlabd/python3.10/site-packages
#endif //pythonpath
// pythonexec is set to /usr/local/opt/gridlabd/4.3.11-241218-develop_tkinter_gui-darwin_23-x86_64/bin/python3
// datadir is set to /usr/local/opt/gridlabd/4.3.11-241218-develop_tkinter_gui-darwin_23-x86_64/share/gridlabd
// bindir is set to /usr/local/opt/gridlabd/4.3.11-241218-develop_tkinter_gui-darwin_23-x86_64/bin
// vardir is set to /usr/local/opt/gridlabd/4.3.11-241218-develop_tkinter_gui-darwin_23-x86_64/var/gridlabd
// libdir is set to /usr/local/opt/gridlabd/4.3.11-241218-develop_tkinter_gui-darwin_23-x86_64/lib/gridlabd
// incdir is set to /usr/local/opt/gridlabd/4.3.11-241218-develop_tkinter_gui-darwin_23-x86_64/include
// logfile is set to /tmp/gridlabd-log
// pidfile_dir is set to /tmp/gridlabd-pid
// configpath is set to /usr/local/opt/gridlabd/4.3.11-241218-develop_tkinter_gui-darwin_23-x86_64/share/gridlabd/solver_py.conf
#ifndef json_complex_format
global set json_complex_format STRING;
#else
#set json_complex_format=STRING
#endif //json_complex_format
#ifndef rusage_file
#define rusage_file=gridlabd-rusage.csv
#else
#set rusage_file=gridlabd-rusage.csv
#endif //rusage_file
#ifndef rusage_rate
global int64 rusage_rate 0;
#else
#set rusage_rate=0
#endif //rusage_rate
#ifndef rusage
#define rusage={"utime" : 0.439930, "stime" : 0.173195, "maxrss" : 30171136, "ixrss" : 0, "idrss" : 0, "isrss" : 0, "minflt" : 9265, "majflt" : 241, "nswap" : 0, "inblock" : 0, "oublock" : 0, "msgsnd" : 0, "msgrcv" : 0, "nsignals" : 0, "nvcsw" : 2, "nivcsw" : 2341}
#else
#set rusage={"utime" : 0.439930, "stime" : 0.173195, "maxrss" : 30171136, "ixrss" : 0, "idrss" : 0, "isrss" : 0, "minflt" : 9265, "majflt" : 241, "nswap" : 0, "inblock" : 0, "oublock" : 0, "msgsnd" : 0, "msgrcv" : 0, "nsignals" : 0, "nvcsw" : 2, "nivcsw" : 2341}
#endif //rusage
#ifndef echo
global bool echo FALSE;
#else
#set echo=FALSE
#endif //echo
// filename is set to /Users/david/GitHub/dchassin/gridlabd/tools/autotest/test_moutils.glm
#ifndef country
global char8 country "US";
#else
#set country=US
#endif //country
#ifndef region
global char32 region "CA";
#else
#set region=CA
#endif //region
#ifndef organization
global char32 organization "SLAC";
#else
#set organization=SLAC
#endif //organization
// profile_output_format is set to 
#ifndef maximum_runtime
global int64 maximum_runtime 0;
#else
#set maximum_runtime=0
#endif //maximum_runtime
#ifndef flush_output
global int32 flush_output 0;
#else
#set flush_output=0
#endif //flush_output
// powerflow::message_flags is set to 
// powerflow::show_matrix_values is set to FALSE
// powerflow::primary_voltage_ratio is set to +60 pu
// powerflow::nominal_frequency is set to +60 Hz
// powerflow::require_voltage_control is set to FALSE
// powerflow::geographic_degree is set to +0
// powerflow::fault_impedance is set to +1e-06+0j Ohm
// powerflow::ground_impedance is set to +1e-06+0j Ohm
// powerflow::warning_underfrequency is set to +55 Hz
// powerflow::warning_overfrequency is set to +65 Hz
// powerflow::warning_undervoltage is set to +0.8 V
// powerflow::warning_overvoltage is set to +1.2 V
// powerflow::warning_voltageangle is set to +2
// powerflow::maximum_voltage_error is set to +0.0001 V
// powerflow::solver_method is set to NR
// powerflow::NR_matrix_file is set to 
// powerflow::NR_matrix_output_interval is set to NEVER
// powerflow::NR_matrix_output_references is set to FALSE
// powerflow::NR_matrix_output_rhs is set to FALSE
// powerflow::NR_island_failure_handled is set to FALSE
// powerflow::line_capacitance is set to FALSE
// powerflow::line_limits is set to FALSE
// powerflow::lu_solver is set to 
// powerflow::NR_iteration_limit is set to 500
// powerflow::NR_deltamode_iteration_limit is set to 10
// powerflow::NR_superLU_procs is set to 1
// powerflow::default_maximum_voltage_error is set to +0.0001 pu
// powerflow::default_maximum_power_error is set to +0.0001 pu
// powerflow::NR_admit_change is set to FALSE
// powerflow::enable_subsecond_models is set to FALSE
// powerflow::all_powerflow_delta is set to FALSE
// powerflow::deltamode_timestep is set to +1e+07 ns
// powerflow::current_frequency is set to +60 Hz
// powerflow::master_frequency_update is set to FALSE
// powerflow::enable_frequency_dependence is set to FALSE
// powerflow::default_resistance is set to +0.0001 Ohm
// powerflow::enable_inrush is set to FALSE
// powerflow::low_voltage_impedance_level is set to +0.7 pu
// powerflow::enable_mesh_fault_current is set to FALSE
// powerflow::convergence_error_handling is set to FATAL
// powerflow::solver_profile_enable is set to FALSE
// powerflow::solver_profile_filename is set to solver_nr_profile.txt
// powerflow::solver_profile_headers_included is set to TRUE
// powerflow::solver_headers is set to timestamp,duration[microsec],iteration,bus_count,branch_count,error
// powerflow::solver_profile_csv is set to FALSE
// powerflow::solver_py_config is set to /usr/local/opt/gridlabd/4.3.11-241218-develop_tkinter_gui-darwin_23-x86_64/share/gridlabd/solver_py.conf
// powerflow::solver_dump_enable is set to FALSE
// powerflow::violation_record is set to 
// powerflow::violation_count is set to 21
// powerflow::violation_active is set to 21
// powerflow::violation_watchset is set to ALL
// powerflow::voltage_violation_threshold is set to +0.05 pu
// powerflow::undervoltage_violation_threshold is set to +0 pu
// powerflow::overvoltage_violation_threshold is set to +0 pu
// powerflow::voltage_fluctuation_threshold is set to +0.03 pu
// powerflow::DER_violation_test is set to ANY
// powerflow::default_continuous_rating is set to +1000 A
// powerflow::default_emergency_rating is set to +2000 A
// powerflow::default_violation_rating is set to +0 A
// powerflow::market_price_name is set to current_market.clearing_price
// powerflow::repair_time is set to +24 h
// powerflow::wind_speed_name is set to wind_speed
// powerflow::wind_dir_name is set to wind_dir
// powerflow::wind_gust_name is set to wind_gust
// powerflow::stop_on_pole_failure is set to FALSE
// powerflow::climate_impact_zone is set to NONE
// powerflow::building_defaults is set to building_defaults.csv
// powerflow::building_loadshapes is set to building_loadshapes.csv
// powerflow::building_occupancy is set to building_occupancy.csv
// powerflow::inverter_settings is set to inverter_settings.csv
// powerflow::NAICS_datafile is set to naics_data_file.csv
// powerflow::ground_temperature is set to +25 degC
// powerflow::warning_cable_temperature is set to +80 degC
// powerflow::alert_cable_temperature is set to +90 degC
// powerflow::ductbank_configuration_file is set to ductbank_configurations.csv
// powerflow::air_effective_conductivity is set to +0.2 W/K*m

// CLASSES// SCHEDULES



// OBJECTS
object node
{
	name "node_3";
	latitude "35.384600";
	longitude "-119.002200";
	groupid "nodevolts";
	rng_state "16807";
	guid "6B77623CE8F1A9E9";
	bustype "PQ";
	busflags "HASSOURCE";
	maximum_voltage_error "0.240178 V";
	voltage_A "0+0j V";
	voltage_B "0+0j V";
	voltage_C "-1165.54+2065.97j V";
	voltage_AB "0+0j V";
	voltage_BC "1165.54-2065.97j V";
	voltage_CA "-1165.54+2065.97j V";
	mean_repair_time "0 s";
	frequency_measure_type "NONE";
	sfm_Tf "0.01 s";
	pll_Kp "10 pu";
	pll_Ki "100 pu";
	measured_angle_A "0 rad";
	measured_frequency_A "60 Hz";
	measured_angle_B "0 rad";
	measured_frequency_B "60 Hz";
	measured_angle_C "0 rad";
	measured_frequency_C "60 Hz";
	measured_frequency "60 Hz";
	service_status "IN_SERVICE";
	service_status_double "-1";
	previous_uptime "-1 min";
	current_uptime "0 min";
	Norton_dynamic "FALSE";
	generator_dynamic "FALSE";
	reset_disabled_island_state "FALSE";
	GFA_enable "FALSE";
	GFA_freq_low_trip "59.5 Hz";
	GFA_freq_high_trip "60.5 Hz";
	GFA_volt_low_trip "0.8 pu";
	GFA_volt_high_trip "1.2 pu";
	GFA_reconnect_time "300 s";
	GFA_freq_disconnect_time "0.2 s";
	GFA_volt_disconnect_time "0.2 s";
	GFA_status "TRUE";
	GFA_trip_method "NONE";
	voltage_violation_threshold "0.05 pu";
	undervoltage_violation_threshold "0 pu";
	overvoltage_violation_threshold "0 pu";
	voltage_fluctuation_threshold "0.03 pu";
	DER_value "0+0j VA";
	phases "CN";
	nominal_voltage "2401.78 V";
	violation_detected "NONE";
}
object node
{
	name "node_8";
	latitude "35.385283";
	longitude "-119.000517";
	groupid "nodevolts";
	rng_state "282475249";
	guid "736C0F5CBBE3F2E8";
	bustype "PQ";
	busflags "HASSOURCE";
	maximum_voltage_error "0.240178 V";
	voltage_A "2363.89-18.4846j V";
	voltage_B "-1195.28-2028j V";
	voltage_C "-1132.32+2056.8j V";
	voltage_AB "3559.17+2009.52j V";
	voltage_BC "-62.9628-4084.81j V";
	voltage_CA "-3496.21+2075.29j V";
	mean_repair_time "0 s";
	frequency_measure_type "NONE";
	sfm_Tf "0.01 s";
	pll_Kp "10 pu";
	pll_Ki "100 pu";
	measured_angle_A "0 rad";
	measured_frequency_A "60 Hz";
	measured_angle_B "0 rad";
	measured_frequency_B "60 Hz";
	measured_angle_C "0 rad";
	measured_frequency_C "60 Hz";
	measured_frequency "60 Hz";
	service_status "IN_SERVICE";
	service_status_double "-1";
	previous_uptime "-1 min";
	current_uptime "0 min";
	Norton_dynamic "FALSE";
	generator_dynamic "FALSE";
	reset_disabled_island_state "FALSE";
	GFA_enable "FALSE";
	GFA_freq_low_trip "59.5 Hz";
	GFA_freq_high_trip "60.5 Hz";
	GFA_volt_low_trip "0.8 pu";
	GFA_volt_high_trip "1.2 pu";
	GFA_reconnect_time "300 s";
	GFA_freq_disconnect_time "0.2 s";
	GFA_volt_disconnect_time "0.2 s";
	GFA_status "TRUE";
	GFA_trip_method "NONE";
	voltage_violation_threshold "0.05 pu";
	undervoltage_violation_threshold "0 pu";
	overvoltage_violation_threshold "0 pu";
	voltage_fluctuation_threshold "0.03 pu";
	DER_value "0+0j VA";
	phases "ABCN";
	nominal_voltage "2401.78 V";
	violation_detected "NONE";
}
object node
{
	name "node_13";
	latitude "35.385283";
	longitude "-118.999517";
	groupid "nodevolts";
	rng_state "1622650073";
	guid "703DAFDB29F09753";
	bustype "PQ";
	busflags "HASSOURCE";
	maximum_voltage_error "0.240178 V";
	voltage_A "2340.33-34.1028j V";
	voltage_B "-1198.13-2015.97j V";
	voltage_C "-1114.32+2045.91j V";
	voltage_AB "3538.46+1981.87j V";
	voltage_BC "-83.8104-4061.88j V";
	voltage_CA "-3454.65+2080.01j V";
	mean_repair_time "0 s";
	frequency_measure_type "NONE";
	sfm_Tf "0.01 s";
	pll_Kp "10 pu";
	pll_Ki "100 pu";
	measured_angle_A "0 rad";
	measured_frequency_A "60 Hz";
	measured_angle_B "0 rad";
	measured_frequency_B "60 Hz";
	measured_angle_C "0 rad";
	measured_frequency_C "60 Hz";
	measured_frequency "60 Hz";
	service_status "IN_SERVICE";
	service_status_double "-1";
	previous_uptime "-1 min";
	current_uptime "0 min";
	Norton_dynamic "FALSE";
	generator_dynamic "FALSE";
	reset_disabled_island_state "FALSE";
	GFA_enable "FALSE";
	GFA_freq_low_trip "59.5 Hz";
	GFA_freq_high_trip "60.5 Hz";
	GFA_volt_low_trip "0.8 pu";
	GFA_volt_high_trip "1.2 pu";
	GFA_reconnect_time "300 s";
	GFA_freq_disconnect_time "0.2 s";
	GFA_volt_disconnect_time "0.2 s";
	GFA_status "TRUE";
	GFA_trip_method "NONE";
	voltage_violation_threshold "0.05 pu";
	undervoltage_violation_threshold "0 pu";
	overvoltage_violation_threshold "0 pu";
	voltage_fluctuation_threshold "0.03 pu";
	DER_value "0+0j VA";
	phases "ABCN";
	nominal_voltage "2401.78 V";
	violation_detected "NONE";
}
object substation
{
	name "node_14";
	latitude "35.387067";
	longitude "-119.000517";
	groupid "nodevolts";
	rng_state "984943658";
	guid "5147826313BD8CEC";
	zero_sequence_voltage "0+0j V";
	positive_sequence_voltage "0+0j V";
	negative_sequence_voltage "0+0j V";
	base_power "100 VA";
	power_convergence_value "1 VA";
	reference_phase "PHASE_A";
	transmission_level_constant_power_load "0+0j VA";
	transmission_level_constant_current_load "0+0j A";
	transmission_level_constant_impedance_load "0+0j Ohm";
	distribution_load "59968.1+29998j VA";
	distribution_power_A "59968.1+29998j VA";
	distribution_power_B "0+0j VA";
	distribution_power_C "0+0j VA";
	distribution_voltage_A "2401.78+0j V";
	distribution_voltage_B "0+0j V";
	distribution_voltage_C "0+0j V";
	distribution_voltage_AB "2401.78+0j V";
	distribution_voltage_BC "0+0j V";
	distribution_voltage_CA "-2401.78+0j V";
	distribution_current_A "24.9682-12.4899j A";
	distribution_current_B "0+0j A";
	distribution_current_C "0+0j A";
	distribution_real_energy "0 Wh";
	bustype "SWING";
	busflags "HASSOURCE";
	maximum_voltage_error "0.240178 V";
	voltage_A "2401.78+0j V";
	voltage_B "0+0j V";
	voltage_C "0+0j V";
	voltage_AB "2401.78+0j V";
	voltage_BC "0+0j V";
	voltage_CA "-2401.78+0j V";
	mean_repair_time "0 s";
	frequency_measure_type "NONE";
	sfm_Tf "0.01 s";
	pll_Kp "10 pu";
	pll_Ki "100 pu";
	measured_angle_A "0 rad";
	measured_frequency_A "60 Hz";
	measured_angle_B "0 rad";
	measured_frequency_B "60 Hz";
	measured_angle_C "0 rad";
	measured_frequency_C "60 Hz";
	measured_frequency "60 Hz";
	service_status "IN_SERVICE";
	service_status_double "-1";
	previous_uptime "-1 min";
	current_uptime "0 min";
	Norton_dynamic "FALSE";
	generator_dynamic "FALSE";
	reset_disabled_island_state "FALSE";
	GFA_enable "FALSE";
	GFA_freq_low_trip "59.5 Hz";
	GFA_freq_high_trip "60.5 Hz";
	GFA_volt_low_trip "0.8 pu";
	GFA_volt_high_trip "1.2 pu";
	GFA_reconnect_time "300 s";
	GFA_freq_disconnect_time "0.2 s";
	GFA_volt_disconnect_time "0.2 s";
	GFA_status "TRUE";
	GFA_trip_method "NONE";
	voltage_violation_threshold "0.05 pu";
	undervoltage_violation_threshold "0 pu";
	overvoltage_violation_threshold "0 pu";
	voltage_fluctuation_threshold "0.03 pu";
	DER_value "0+0j VA";
	phases "AN";
	nominal_voltage "2401.78 V";
	violation_detected "NONE";
}
object meter
{
	name "substation_meter";
	parent "node_14";
	latitude "35.387067";
	longitude "-119.000517";
	groupid "nodevolts";
	rng_state "1144108930";
	guid "4685E615CB22821C";
	measured_real_energy "0 Wh";
	measured_real_energy_delta "0 Wh";
	measured_reactive_energy "0 VAh";
	measured_reactive_energy_delta "0 VAh";
	measured_energy_delta_timestep "-1 s";
	measured_power "0+0j VA";
	measured_power_A "0+0j VA";
	measured_power_B "0+0j VA";
	measured_power_C "0+0j VA";
	measured_demand "0 W";
	measured_real_power "0 W";
	measured_reactive_power "0 VAr";
	meter_power_consumption "0+0j VA";
	measured_voltage_A "2401.78+0j V";
	measured_voltage_B "0+0j V";
	measured_voltage_C "0+0j V";
	measured_voltage_AB "2401.78+0j V";
	measured_voltage_BC "0+0j V";
	measured_voltage_CA "-2401.78+0j V";
	measured_real_max_voltage_in_interval_A "0";
	measured_real_max_voltage_in_interval_B "0";
	measured_real_max_voltage_in_interval_C "0";
	measured_reactive_max_voltage_in_interval_A "0";
	measured_reactive_max_voltage_in_interval_B "0";
	measured_reactive_max_voltage_in_interval_C "0";
	measured_real_max_voltage_in_interval_AB "0";
	measured_real_max_voltage_in_interval_BC "0";
	measured_real_max_voltage_in_interval_CA "0";
	measured_reactive_max_voltage_in_interval_AB "0";
	measured_reactive_max_voltage_in_interval_BC "0";
	measured_reactive_max_voltage_in_interval_CA "0";
	measured_real_min_voltage_in_interval_A "0";
	measured_real_min_voltage_in_interval_B "0";
	measured_real_min_voltage_in_interval_C "0";
	measured_reactive_min_voltage_in_interval_A "0";
	measured_reactive_min_voltage_in_interval_B "0";
	measured_reactive_min_voltage_in_interval_C "0";
	measured_real_min_voltage_in_interval_AB "0";
	measured_real_min_voltage_in_interval_BC "0";
	measured_real_min_voltage_in_interval_CA "0";
	measured_reactive_min_voltage_in_interval_AB "0";
	measured_reactive_min_voltage_in_interval_BC "0";
	measured_reactive_min_voltage_in_interval_CA "0";
	measured_avg_voltage_mag_in_interval_A "0";
	measured_avg_voltage_mag_in_interval_B "0";
	measured_avg_voltage_mag_in_interval_C "0";
	measured_avg_voltage_mag_in_interval_AB "0";
	measured_avg_voltage_mag_in_interval_BC "0";
	measured_avg_voltage_mag_in_interval_CA "0";
	measured_current_A "0+0j A";
	measured_current_B "0+0j A";
	measured_current_C "0+0j A";
	customer_interrupted "FALSE";
	customer_interrupted_secondary "FALSE";
	monthly_bill "0 $";
	previous_monthly_bill "0 $";
	previous_monthly_energy "0 kWh";
	monthly_fee "0 $";
	monthly_energy "0 kWh";
	bill_mode "NONE";
	bill_day "15";
	price "0 $/kWh";
	price_base "0 $/kWh";
	first_tier_price "0 $/kWh";
	first_tier_energy "0 kWh";
	second_tier_price "0 $/kWh";
	second_tier_energy "0 kWh";
	third_tier_price "0 $/kWh";
	third_tier_energy "0 kWh";
	service_level "NORMAL";
	bustype "PQ";
	busflags "HASSOURCE";
	maximum_voltage_error "0.240178 V";
	voltage_A "2401.78+0j V";
	voltage_B "0+0j V";
	voltage_C "0+0j V";
	voltage_AB "2401.78+0j V";
	voltage_BC "0+0j V";
	voltage_CA "-2401.78+0j V";
	mean_repair_time "0 s";
	frequency_measure_type "NONE";
	sfm_Tf "0.01 s";
	pll_Kp "10 pu";
	pll_Ki "100 pu";
	measured_angle_A "0 rad";
	measured_frequency_A "60 Hz";
	measured_angle_B "0 rad";
	measured_frequency_B "60 Hz";
	measured_angle_C "0 rad";
	measured_frequency_C "60 Hz";
	measured_frequency "60 Hz";
	service_status "IN_SERVICE";
	service_status_double "-1";
	previous_uptime "-1 min";
	current_uptime "0 min";
	Norton_dynamic "FALSE";
	generator_dynamic "FALSE";
	reset_disabled_island_state "FALSE";
	GFA_enable "FALSE";
	GFA_freq_low_trip "59.5 Hz";
	GFA_freq_high_trip "60.5 Hz";
	GFA_volt_low_trip "0.8 pu";
	GFA_volt_high_trip "1.2 pu";
	GFA_reconnect_time "300 s";
	GFA_freq_disconnect_time "0.2 s";
	GFA_volt_disconnect_time "0.2 s";
	GFA_status "TRUE";
	GFA_trip_method "NONE";
	topological_parent "node_14";
	voltage_violation_threshold "0.05 pu";
	undervoltage_violation_threshold "0 pu";
	overvoltage_violation_threshold "0 pu";
	voltage_fluctuation_threshold "0.03 pu";
	DER_value "0+0j VA";
	phases "AN";
	nominal_voltage "2401.78 V";
	violation_detected "NONE";
}
object node
{
	name "node_15";
	latitude "35.384600";
	longitude "-118.999517";
	groupid "nodevolts";
	rng_state "470211272";
	guid "2C04ABF66989CE37";
	bustype "PQ";
	busflags "HASSOURCE";
	maximum_voltage_error "0.240178 V";
	voltage_A "0+0j V";
	voltage_B "0+0j V";
	voltage_C "-1111.71+2043.5j V";
	voltage_AB "0+0j V";
	voltage_BC "1111.71-2043.5j V";
	voltage_CA "-1111.71+2043.5j V";
	mean_repair_time "0 s";
	frequency_measure_type "NONE";
	sfm_Tf "0.01 s";
	pll_Kp "10 pu";
	pll_Ki "100 pu";
	measured_angle_A "0 rad";
	measured_frequency_A "60 Hz";
	measured_angle_B "0 rad";
	measured_frequency_B "60 Hz";
	measured_angle_C "0 rad";
	measured_frequency_C "60 Hz";
	measured_frequency "60 Hz";
	service_status "IN_SERVICE";
	service_status_double "-1";
	previous_uptime "-1 min";
	current_uptime "0 min";
	Norton_dynamic "FALSE";
	generator_dynamic "FALSE";
	reset_disabled_island_state "FALSE";
	GFA_enable "FALSE";
	GFA_freq_low_trip "59.5 Hz";
	GFA_freq_high_trip "60.5 Hz";
	GFA_volt_low_trip "0.8 pu";
	GFA_volt_high_trip "1.2 pu";
	GFA_reconnect_time "300 s";
	GFA_freq_disconnect_time "0.2 s";
	GFA_volt_disconnect_time "0.2 s";
	GFA_status "TRUE";
	GFA_trip_method "NONE";
	voltage_violation_threshold "0.05 pu";
	undervoltage_violation_threshold "0 pu";
	overvoltage_violation_threshold "0 pu";
	voltage_fluctuation_threshold "0.03 pu";
	DER_value "0+0j VA";
	phases "CN";
	nominal_voltage "2401.78 V";
	violation_detected "NONE";
}
object node
{
	name "node_18";
	groupid "nodevolts";
	rng_state "101027544";
	guid "12948EE43CC7DDF3";
	bustype "PQ";
	busflags "HASSOURCE";
	maximum_voltage_error "0.240178 V";
	voltage_A "2318.67-51.8939j V";
	voltage_B "-1201.94-2002.44j V";
	voltage_C "-1102.47+2031.04j V";
	voltage_AB "3520.62+1950.55j V";
	voltage_BC "-99.4701-4033.48j V";
	voltage_CA "-3421.15+2082.94j V";
	mean_repair_time "0 s";
	frequency_measure_type "NONE";
	sfm_Tf "0.01 s";
	pll_Kp "10 pu";
	pll_Ki "100 pu";
	measured_angle_A "0 rad";
	measured_frequency_A "60 Hz";
	measured_angle_B "0 rad";
	measured_frequency_B "60 Hz";
	measured_angle_C "0 rad";
	measured_frequency_C "60 Hz";
	measured_frequency "60 Hz";
	service_status "IN_SERVICE";
	service_status_double "-1";
	previous_uptime "-1 min";
	current_uptime "0 min";
	Norton_dynamic "FALSE";
	generator_dynamic "FALSE";
	reset_disabled_island_state "FALSE";
	GFA_enable "FALSE";
	GFA_freq_low_trip "59.5 Hz";
	GFA_freq_high_trip "60.5 Hz";
	GFA_volt_low_trip "0.8 pu";
	GFA_volt_high_trip "1.2 pu";
	GFA_reconnect_time "300 s";
	GFA_freq_disconnect_time "0.2 s";
	GFA_volt_disconnect_time "0.2 s";
	GFA_status "TRUE";
	GFA_trip_method "NONE";
	voltage_violation_threshold "0.05 pu";
	undervoltage_violation_threshold "0 pu";
	overvoltage_violation_threshold "0 pu";
	voltage_fluctuation_threshold "0.03 pu";
	DER_value "0+0j VA";
	phases "ABCN";
	nominal_voltage "2401.78 V";
	violation_detected "NONE";
}
object node
{
	name "node_21";
	latitude "35.388367";
	longitude "-118.999517";
	groupid "nodevolts";
	rng_state "1457850878";
	guid "23D4756E186B5FFF";
	bustype "PQ";
	busflags "HASSOURCE";
	maximum_voltage_error "0.240178 V";
	voltage_A "2317.42-54.1139j V";
	voltage_B "-1201.9-2002.67j V";
	voltage_C "-1100.11+2028.9j V";
	voltage_AB "3519.32+1948.56j V";
	voltage_BC "-101.797-4031.57j V";
	voltage_CA "-3417.52+2083.02j V";
	mean_repair_time "0 s";
	frequency_measure_type "NONE";
	sfm_Tf "0.01 s";
	pll_Kp "10 pu";
	pll_Ki "100 pu";
	measured_angle_A "0 rad";
	measured_frequency_A "60 Hz";
	measured_angle_B "0 rad";
	measured_frequency_B "60 Hz";
	measured_angle_C "0 rad";
	measured_frequency_C "60 Hz";
	measured_frequency "60 Hz";
	service_status "IN_SERVICE";
	service_status_double "-1";
	previous_uptime "-1 min";
	current_uptime "0 min";
	Norton_dynamic "FALSE";
	generator_dynamic "FALSE";
	reset_disabled_island_state "FALSE";
	GFA_enable "FALSE";
	GFA_freq_low_trip "59.5 Hz";
	GFA_freq_high_trip "60.5 Hz";
	GFA_volt_low_trip "0.8 pu";
	GFA_volt_high_trip "1.2 pu";
	GFA_reconnect_time "300 s";
	GFA_freq_disconnect_time "0.2 s";
	GFA_volt_disconnect_time "0.2 s";
	GFA_status "TRUE";
	GFA_trip_method "NONE";
	voltage_violation_threshold "0.05 pu";
	undervoltage_violation_threshold "0 pu";
	overvoltage_violation_threshold "0 pu";
	voltage_fluctuation_threshold "0.03 pu";
	DER_value "0+0j VA";
	phases "ABCN";
	nominal_voltage "2401.78 V";
	violation_detected "NONE";
}
object node
{
	name "node_23";
	latitude "35.389050";
	longitude "-118.999517";
	groupid "nodevolts";
	rng_state "1458777923";
	guid "42A2B61720460ABB";
	bustype "PQ";
	busflags "HASSOURCE";
	maximum_voltage_error "0.240178 V";
	voltage_A "2316.45-56.3426j V";
	voltage_B "-1201.71-2003.84j V";
	voltage_C "-1098.07+2026.77j V";
	voltage_AB "3518.16+1947.5j V";
	voltage_BC "-103.646-4030.61j V";
	voltage_CA "-3414.52+2083.11j V";
	mean_repair_time "0 s";
	frequency_measure_type "NONE";
	sfm_Tf "0.01 s";
	pll_Kp "10 pu";
	pll_Ki "100 pu";
	measured_angle_A "0 rad";
	measured_frequency_A "60 Hz";
	measured_angle_B "0 rad";
	measured_frequency_B "60 Hz";
	measured_angle_C "0 rad";
	measured_frequency_C "60 Hz";
	measured_frequency "60 Hz";
	service_status "IN_SERVICE";
	service_status_double "-1";
	previous_uptime "-1 min";
	current_uptime "0 min";
	Norton_dynamic "FALSE";
	generator_dynamic "FALSE";
	reset_disabled_island_state "FALSE";
	GFA_enable "FALSE";
	GFA_freq_low_trip "59.5 Hz";
	GFA_freq_high_trip "60.5 Hz";
	GFA_volt_low_trip "0.8 pu";
	GFA_volt_high_trip "1.2 pu";
	GFA_reconnect_time "300 s";
	GFA_freq_disconnect_time "0.2 s";
	GFA_volt_disconnect_time "0.2 s";
	GFA_status "TRUE";
	GFA_trip_method "NONE";
	voltage_violation_threshold "0.05 pu";
	undervoltage_violation_threshold "0 pu";
	overvoltage_violation_threshold "0 pu";
	voltage_fluctuation_threshold "0.03 pu";
	DER_value "0+0j VA";
	phases "ABCN";
	nominal_voltage "2401.78 V";
	violation_detected "NONE";
}
object node
{
	name "node_25";
	groupid "nodevolts";
	rng_state "2007237709";
	guid "7C49069AD6B3BEC6";
	bustype "PQ";
	busflags "HASSOURCE";
	maximum_voltage_error "0.240178 V";
	voltage_A "2314.87-58.6529j V";
	voltage_B "-1201.9-2004.99j V";
	voltage_C "-1096.93+2024.85j V";
	voltage_AB "3516.77+1946.34j V";
	voltage_BC "-104.969-4029.84j V";
	voltage_CA "-3411.8+2083.51j V";
	mean_repair_time "0 s";
	frequency_measure_type "NONE";
	sfm_Tf "0.01 s";
	pll_Kp "10 pu";
	pll_Ki "100 pu";
	measured_angle_A "0 rad";
	measured_frequency_A "60 Hz";
	measured_angle_B "0 rad";
	measured_frequency_B "60 Hz";
	measured_angle_C "0 rad";
	measured_frequency_C "60 Hz";
	measured_frequency "60 Hz";
	service_status "IN_SERVICE";
	service_status_double "-1";
	previous_uptime "-1 min";
	current_uptime "0 min";
	Norton_dynamic "FALSE";
	generator_dynamic "FALSE";
	reset_disabled_island_state "FALSE";
	GFA_enable "FALSE";
	GFA_freq_low_trip "59.5 Hz";
	GFA_freq_high_trip "60.5 Hz";
	GFA_volt_low_trip "0.8 pu";
	GFA_volt_high_trip "1.2 pu";
	GFA_reconnect_time "300 s";
	GFA_freq_disconnect_time "0.2 s";
	GFA_volt_disconnect_time "0.2 s";
	GFA_status "TRUE";
	GFA_trip_method "NONE";
	voltage_violation_threshold "0.05 pu";
	undervoltage_violation_threshold "0 pu";
	overvoltage_violation_threshold "0 pu";
	voltage_fluctuation_threshold "0.03 pu";
	DER_value "0+0j VA";
	phases "ABCN";
	nominal_voltage "2401.78 V";
	violation_detected "NONE";
}
object node
{
	name "node_26";
	groupid "nodevolts";
	rng_state "823564440";
	guid "2D51EE0D192BC6F0";
	bustype "PQ";
	busflags "HASSOURCE";
	maximum_voltage_error "0.240178 V";
	voltage_A "2314.25-59.7429j V";
	voltage_B "0+0j V";
	voltage_C "-1089.06+2011.31j V";
	voltage_AB "2314.25-59.7429j V";
	voltage_BC "1089.06-2011.31j V";
	voltage_CA "-3403.32+2071.05j V";
	mean_repair_time "0 s";
	frequency_measure_type "NONE";
	sfm_Tf "0.01 s";
	pll_Kp "10 pu";
	pll_Ki "100 pu";
	measured_angle_A "0 rad";
	measured_frequency_A "60 Hz";
	measured_angle_B "0 rad";
	measured_frequency_B "60 Hz";
	measured_angle_C "0 rad";
	measured_frequency_C "60 Hz";
	measured_frequency "60 Hz";
	service_status "IN_SERVICE";
	service_status_double "-1";
	previous_uptime "-1 min";
	current_uptime "0 min";
	Norton_dynamic "FALSE";
	generator_dynamic "FALSE";
	reset_disabled_island_state "FALSE";
	GFA_enable "FALSE";
	GFA_freq_low_trip "59.5 Hz";
	GFA_freq_high_trip "60.5 Hz";
	GFA_volt_low_trip "0.8 pu";
	GFA_volt_high_trip "1.2 pu";
	GFA_reconnect_time "300 s";
	GFA_freq_disconnect_time "0.2 s";
	GFA_volt_disconnect_time "0.2 s";
	GFA_status "TRUE";
	GFA_trip_method "NONE";
	voltage_violation_threshold "0.05 pu";
	undervoltage_violation_threshold "0 pu";
	overvoltage_violation_threshold "0 pu";
	voltage_fluctuation_threshold "0.03 pu";
	DER_value "0+0j VA";
	phases "ACN";
	nominal_voltage "2401.78 V";
	violation_detected "NONE";
}
object node
{
	name "node_27";
	groupid "nodevolts";
	rng_state "1115438165";
	guid "402921ED2B1C96B8";
	bustype "PQ";
	busflags "HASSOURCE";
	maximum_voltage_error "0.240178 V";
	voltage_A "2313.37-60.4563j V";
	voltage_B "0+0j V";
	voltage_C "-1089.37+2011.05j V";
	voltage_AB "2313.37-60.4563j V";
	voltage_BC "1089.37-2011.05j V";
	voltage_CA "-3402.74+2071.51j V";
	mean_repair_time "0 s";
	frequency_measure_type "NONE";
	sfm_Tf "0.01 s";
	pll_Kp "10 pu";
	pll_Ki "100 pu";
	measured_angle_A "0 rad";
	measured_frequency_A "60 Hz";
	measured_angle_B "0 rad";
	measured_frequency_B "60 Hz";
	measured_angle_C "0 rad";
	measured_frequency_C "60 Hz";
	measured_frequency "60 Hz";
	service_status "IN_SERVICE";
	service_status_double "-1";
	previous_uptime "-1 min";
	current_uptime "0 min";
	Norton_dynamic "FALSE";
	generator_dynamic "FALSE";
	reset_disabled_island_state "FALSE";
	GFA_enable "FALSE";
	GFA_freq_low_trip "59.5 Hz";
	GFA_freq_high_trip "60.5 Hz";
	GFA_volt_low_trip "0.8 pu";
	GFA_volt_high_trip "1.2 pu";
	GFA_reconnect_time "300 s";
	GFA_freq_disconnect_time "0.2 s";
	GFA_volt_disconnect_time "0.2 s";
	GFA_status "TRUE";
	GFA_trip_method "NONE";
	voltage_violation_threshold "0.05 pu";
	undervoltage_violation_threshold "0 pu";
	overvoltage_violation_threshold "0 pu";
	voltage_fluctuation_threshold "0.03 pu";
	DER_value "0+0j VA";
	phases "ACN";
	nominal_voltage "2401.78 V";
	violation_detected "NONE";
}
object node
{
	name "node_36";
	groupid "nodevolts";
	rng_state "1784484492";
	guid "2ED50B3636A15B74";
	bustype "PQ";
	busflags "HASSOURCE";
	maximum_voltage_error "0.240178 V";
	voltage_A "2309.79-56.0525j V";
	voltage_B "-1202.99-1993.32j V";
	voltage_C "0+0j V";
	voltage_AB "3512.78+1937.27j V";
	voltage_BC "-1202.99-1993.32j V";
	voltage_CA "-2309.79+56.0525j V";
	mean_repair_time "0 s";
	frequency_measure_type "NONE";
	sfm_Tf "0.01 s";
	pll_Kp "10 pu";
	pll_Ki "100 pu";
	measured_angle_A "0 rad";
	measured_frequency_A "60 Hz";
	measured_angle_B "0 rad";
	measured_frequency_B "60 Hz";
	measured_angle_C "0 rad";
	measured_frequency_C "60 Hz";
	measured_frequency "60 Hz";
	service_status "IN_SERVICE";
	service_status_double "-1";
	previous_uptime "-1 min";
	current_uptime "0 min";
	Norton_dynamic "FALSE";
	generator_dynamic "FALSE";
	reset_disabled_island_state "FALSE";
	GFA_enable "FALSE";
	GFA_freq_low_trip "59.5 Hz";
	GFA_freq_high_trip "60.5 Hz";
	GFA_volt_low_trip "0.8 pu";
	GFA_volt_high_trip "1.2 pu";
	GFA_reconnect_time "300 s";
	GFA_freq_disconnect_time "0.2 s";
	GFA_volt_disconnect_time "0.2 s";
	GFA_status "TRUE";
	GFA_trip_method "NONE";
	voltage_violation_threshold "0.05 pu";
	undervoltage_violation_threshold "0 pu";
	overvoltage_violation_threshold "0 pu";
	voltage_fluctuation_threshold "0.03 pu";
	DER_value "0+0j VA";
	phases "ABN";
	nominal_voltage "2401.78 V";
	violation_detected "NONE";
}
object node
{
	name "node_40";
	groupid "nodevolts";
	rng_state "74243042";
	guid "83E7E920E1490EE4";
	bustype "PQ";
	busflags "HASSOURCE";
	maximum_voltage_error "0.240178 V";
	voltage_A "2308.31-56.8598j V";
	voltage_B "-1202.14-1992.13j V";
	voltage_C "-1096.01+2028.57j V";
	voltage_AB "3510.44+1935.27j V";
	voltage_BC "-106.121-4020.7j V";
	voltage_CA "-3404.32+2085.43j V";
	mean_repair_time "0 s";
	frequency_measure_type "NONE";
	sfm_Tf "0.01 s";
	pll_Kp "10 pu";
	pll_Ki "100 pu";
	measured_angle_A "0 rad";
	measured_frequency_A "60 Hz";
	measured_angle_B "0 rad";
	measured_frequency_B "60 Hz";
	measured_angle_C "0 rad";
	measured_frequency_C "60 Hz";
	measured_frequency "60 Hz";
	service_status "IN_SERVICE";
	service_status_double "-1";
	previous_uptime "-1 min";
	current_uptime "0 min";
	Norton_dynamic "FALSE";
	generator_dynamic "FALSE";
	reset_disabled_island_state "FALSE";
	GFA_enable "FALSE";
	GFA_freq_low_trip "59.5 Hz";
	GFA_freq_high_trip "60.5 Hz";
	GFA_volt_low_trip "0.8 pu";
	GFA_volt_high_trip "1.2 pu";
	GFA_reconnect_time "300 s";
	GFA_freq_disconnect_time "0.2 s";
	GFA_volt_disconnect_time "0.2 s";
	GFA_status "TRUE";
	GFA_trip_method "NONE";
	voltage_violation_threshold "0.05 pu";
	undervoltage_violation_threshold "0 pu";
	overvoltage_violation_threshold "0 pu";
	voltage_fluctuation_threshold "0.03 pu";
	DER_value "0+0j VA";
	phases "ABCN";
	nominal_voltage "2401.78 V";
	violation_detected "NONE";
}
object node
{
	name "node_44";
	groupid "nodevolts";
	rng_state "114807987";
	guid "765547103FA9890D";
	bustype "PQ";
	busflags "HASSOURCE";
	maximum_voltage_error "0.240178 V";
	voltage_A "2301.82-59.488j V";
	voltage_B "-1202.71-1986.76j V";
	voltage_C "-1091.52+2026.24j V";
	voltage_AB "3504.52+1927.27j V";
	voltage_BC "-111.184-4013j V";
	voltage_CA "-3393.34+2085.73j V";
	mean_repair_time "0 s";
	frequency_measure_type "NONE";
	sfm_Tf "0.01 s";
	pll_Kp "10 pu";
	pll_Ki "100 pu";
	measured_angle_A "0 rad";
	measured_frequency_A "60 Hz";
	measured_angle_B "0 rad";
	measured_frequency_B "60 Hz";
	measured_angle_C "0 rad";
	measured_frequency_C "60 Hz";
	measured_frequency "60 Hz";
	service_status "IN_SERVICE";
	service_status_double "-1";
	previous_uptime "-1 min";
	current_uptime "0 min";
	Norton_dynamic "FALSE";
	generator_dynamic "FALSE";
	reset_disabled_island_state "FALSE";
	GFA_enable "FALSE";
	GFA_freq_low_trip "59.5 Hz";
	GFA_freq_high_trip "60.5 Hz";
	GFA_volt_low_trip "0.8 pu";
	GFA_volt_high_trip "1.2 pu";
	GFA_reconnect_time "300 s";
	GFA_freq_disconnect_time "0.2 s";
	GFA_volt_disconnect_time "0.2 s";
	GFA_status "TRUE";
	GFA_trip_method "NONE";
	voltage_violation_threshold "0.05 pu";
	undervoltage_violation_threshold "0 pu";
	overvoltage_violation_threshold "0 pu";
	voltage_fluctuation_threshold "0.03 pu";
	DER_value "0+0j VA";
	phases "ABCN";
	nominal_voltage "2401.78 V";
	violation_detected "NONE";
}
object node
{
	name "node_54";
	groupid "nodevolts";
	rng_state "1137522503";
	guid "35214098F6F3B99A";
	bustype "PQ";
	busflags "HASSOURCE";
	maximum_voltage_error "0.240178 V";
	voltage_A "2304.85-54.6835j V";
	voltage_B "-1203.71-1994.69j V";
	voltage_C "-1089.04+2031.92j V";
	voltage_AB "3508.56+1940.01j V";
	voltage_BC "-114.676-4026.61j V";
	voltage_CA "-3393.89+2086.6j V";
	mean_repair_time "0 s";
	frequency_measure_type "NONE";
	sfm_Tf "0.01 s";
	pll_Kp "10 pu";
	pll_Ki "100 pu";
	measured_angle_A "0 rad";
	measured_frequency_A "60 Hz";
	measured_angle_B "0 rad";
	measured_frequency_B "60 Hz";
	measured_angle_C "0 rad";
	measured_frequency_C "60 Hz";
	measured_frequency "60 Hz";
	service_status "IN_SERVICE";
	service_status_double "-1";
	previous_uptime "-1 min";
	current_uptime "0 min";
	Norton_dynamic "FALSE";
	generator_dynamic "FALSE";
	reset_disabled_island_state "FALSE";
	GFA_enable "FALSE";
	GFA_freq_low_trip "59.5 Hz";
	GFA_freq_high_trip "60.5 Hz";
	GFA_volt_low_trip "0.8 pu";
	GFA_volt_high_trip "1.2 pu";
	GFA_reconnect_time "300 s";
	GFA_freq_disconnect_time "0.2 s";
	GFA_volt_disconnect_time "0.2 s";
	GFA_status "TRUE";
	GFA_trip_method "NONE";
	voltage_violation_threshold "0.05 pu";
	undervoltage_violation_threshold "0 pu";
	overvoltage_violation_threshold "0 pu";
	voltage_fluctuation_threshold "0.03 pu";
	DER_value "0+0j VA";
	phases "ABCN";
	nominal_voltage "2401.78 V";
	violation_detected "NONE";
}
object node
{
	name "node_57";
	groupid "nodevolts";
	rng_state "1441282327";
	guid "65D52D43B547ABAE";
	bustype "PQ";
	busflags "HASSOURCE";
	maximum_voltage_error "0.240178 V";
	voltage_A "2291.8-64.9487j V";
	voltage_B "-1202.93-1981.65j V";
	voltage_C "-1077.6+2026.01j V";
	voltage_AB "3494.72+1916.7j V";
	voltage_BC "-125.328-4007.66j V";
	voltage_CA "-3369.4+2090.96j V";
	mean_repair_time "0 s";
	frequency_measure_type "NONE";
	sfm_Tf "0.01 s";
	pll_Kp "10 pu";
	pll_Ki "100 pu";
	measured_angle_A "0 rad";
	measured_frequency_A "60 Hz";
	measured_angle_B "0 rad";
	measured_frequency_B "60 Hz";
	measured_angle_C "0 rad";
	measured_frequency_C "60 Hz";
	measured_frequency "60 Hz";
	service_status "IN_SERVICE";
	service_status_double "-1";
	previous_uptime "-1 min";
	current_uptime "0 min";
	Norton_dynamic "FALSE";
	generator_dynamic "FALSE";
	reset_disabled_island_state "FALSE";
	GFA_enable "FALSE";
	GFA_freq_low_trip "59.5 Hz";
	GFA_freq_high_trip "60.5 Hz";
	GFA_volt_low_trip "0.8 pu";
	GFA_volt_high_trip "1.2 pu";
	GFA_reconnect_time "300 s";
	GFA_freq_disconnect_time "0.2 s";
	GFA_volt_disconnect_time "0.2 s";
	GFA_status "TRUE";
	GFA_trip_method "NONE";
	voltage_violation_threshold "0.05 pu";
	undervoltage_violation_threshold "0 pu";
	overvoltage_violation_threshold "0 pu";
	voltage_fluctuation_threshold "0.03 pu";
	DER_value "0+0j VA";
	phases "ABCN";
	nominal_voltage "2401.78 V";
	violation_detected "NONE";
}
object node
{
	name "node_61";
	groupid "nodevolts";
	rng_state "16531729";
	guid "6C14AF0695315232";
	bustype "PQ";
	busflags "HASSOURCE";
	maximum_voltage_error "0.240178 V";
	voltage_A "2264.03-88.0437j V";
	voltage_B "-1200.74-1956.81j V";
	voltage_C "-1052.72+2011.98j V";
	voltage_AB "3464.77+1868.77j V";
	voltage_BC "-148.014-3968.79j V";
	voltage_CA "-3316.76+2100.02j V";
	mean_repair_time "0 s";
	frequency_measure_type "NONE";
	sfm_Tf "0.01 s";
	pll_Kp "10 pu";
	pll_Ki "100 pu";
	measured_angle_A "0 rad";
	measured_frequency_A "60 Hz";
	measured_angle_B "0 rad";
	measured_frequency_B "60 Hz";
	measured_angle_C "0 rad";
	measured_frequency_C "60 Hz";
	measured_frequency "60 Hz";
	service_status "IN_SERVICE";
	service_status_double "-1";
	previous_uptime "-1 min";
	current_uptime "0 min";
	Norton_dynamic "FALSE";
	generator_dynamic "FALSE";
	reset_disabled_island_state "FALSE";
	GFA_enable "FALSE";
	GFA_freq_low_trip "59.5 Hz";
	GFA_freq_high_trip "60.5 Hz";
	GFA_volt_low_trip "0.8 pu";
	GFA_volt_high_trip "1.2 pu";
	GFA_reconnect_time "300 s";
	GFA_freq_disconnect_time "0.2 s";
	GFA_volt_disconnect_time "0.2 s";
	GFA_status "TRUE";
	GFA_trip_method "NONE";
	voltage_violation_threshold "0.05 pu";
	undervoltage_violation_threshold "0 pu";
	overvoltage_violation_threshold "0 pu";
	voltage_fluctuation_threshold "0.03 pu";
	DER_value "0+0j VA";
	phases "ABCN";
	nominal_voltage "2401.78 V";
	violation_detected "VOLTAGE";
}
object node
{
	name "node_67";
	groupid "nodevolts";
	rng_state "823378840";
	guid "4E835CC099BFC51D";
	bustype "PQ";
	busflags "HASSOURCE";
	maximum_voltage_error "0.240178 V";
	voltage_A "2365.13-99.8795j V";
	voltage_B "-1209.89-1961.8j V";
	voltage_C "-1076.9+2069.72j V";
	voltage_AB "3575.03+1861.92j V";
	voltage_BC "-132.989-4031.52j V";
	voltage_CA "-3442.04+2169.6j V";
	mean_repair_time "0 s";
	frequency_measure_type "NONE";
	sfm_Tf "0.01 s";
	pll_Kp "10 pu";
	pll_Ki "100 pu";
	measured_angle_A "0 rad";
	measured_frequency_A "60 Hz";
	measured_angle_B "0 rad";
	measured_frequency_B "60 Hz";
	measured_angle_C "0 rad";
	measured_frequency_C "60 Hz";
	measured_frequency "60 Hz";
	service_status "IN_SERVICE";
	service_status_double "-1";
	previous_uptime "-1 min";
	current_uptime "0 min";
	Norton_dynamic "FALSE";
	generator_dynamic "FALSE";
	reset_disabled_island_state "FALSE";
	GFA_enable "FALSE";
	GFA_freq_low_trip "59.5 Hz";
	GFA_freq_high_trip "60.5 Hz";
	GFA_volt_low_trip "0.8 pu";
	GFA_volt_high_trip "1.2 pu";
	GFA_reconnect_time "300 s";
	GFA_freq_disconnect_time "0.2 s";
	GFA_volt_disconnect_time "0.2 s";
	GFA_status "TRUE";
	GFA_trip_method "NONE";
	voltage_violation_threshold "0.05 pu";
	undervoltage_violation_threshold "0 pu";
	overvoltage_violation_threshold "0 pu";
	voltage_fluctuation_threshold "0.03 pu";
	DER_value "0+0j VA";
	phases "ABCN";
	nominal_voltage "2401.78 V";
	violation_detected "NONE";
}
object node
{
	name "node_72";
	groupid "nodevolts";
	rng_state "143542612";
	guid "26C6480775C377C7";
	bustype "PQ";
	busflags "HASSOURCE";
	maximum_voltage_error "0.240178 V";
	voltage_A "2362.24-102.295j V";
	voltage_B "-1208.6-1955.57j V";
	voltage_C "-1071.66+2068.14j V";
	voltage_AB "3570.83+1853.27j V";
	voltage_BC "-136.935-4023.71j V";
	voltage_CA "-3433.9+2170.44j V";
	mean_repair_time "0 s";
	frequency_measure_type "NONE";
	sfm_Tf "0.01 s";
	pll_Kp "10 pu";
	pll_Ki "100 pu";
	measured_angle_A "0 rad";
	measured_frequency_A "60 Hz";
	measured_angle_B "0 rad";
	measured_frequency_B "60 Hz";
	measured_angle_C "0 rad";
	measured_frequency_C "60 Hz";
	measured_frequency "60 Hz";
	service_status "IN_SERVICE";
	service_status_double "-1";
	previous_uptime "-1 min";
	current_uptime "0 min";
	Norton_dynamic "FALSE";
	generator_dynamic "FALSE";
	reset_disabled_island_state "FALSE";
	GFA_enable "FALSE";
	GFA_freq_low_trip "59.5 Hz";
	GFA_freq_high_trip "60.5 Hz";
	GFA_volt_low_trip "0.8 pu";
	GFA_volt_high_trip "1.2 pu";
	GFA_reconnect_time "300 s";
	GFA_freq_disconnect_time "0.2 s";
	GFA_volt_disconnect_time "0.2 s";
	GFA_status "TRUE";
	GFA_trip_method "NONE";
	voltage_violation_threshold "0.05 pu";
	undervoltage_violation_threshold "0 pu";
	overvoltage_violation_threshold "0 pu";
	voltage_fluctuation_threshold "0.03 pu";
	DER_value "0+0j VA";
	phases "ABCN";
	nominal_voltage "2401.78 V";
	violation_detected "NONE";
}
object node
{
	name "node_78";
	groupid "nodevolts";
	rng_state "896544303";
	guid "4808F6EC43F41458";
	bustype "PQ";
	busflags "HASSOURCE";
	maximum_voltage_error "0.240178 V";
	voltage_A "2356.94-105.115j V";
	voltage_B "-1209.02-1948.77j V";
	voltage_C "-1067.61+2066.87j V";
	voltage_AB "3565.96+1843.66j V";
	voltage_BC "-141.409-4015.64j V";
	voltage_CA "-3424.55+2171.98j V";
	mean_repair_time "0 s";
	frequency_measure_type "NONE";
	sfm_Tf "0.01 s";
	pll_Kp "10 pu";
	pll_Ki "100 pu";
	measured_angle_A "0 rad";
	measured_frequency_A "60 Hz";
	measured_angle_B "0 rad";
	measured_frequency_B "60 Hz";
	measured_angle_C "0 rad";
	measured_frequency_C "60 Hz";
	measured_frequency "60 Hz";
	service_status "IN_SERVICE";
	service_status_double "-1";
	previous_uptime "-1 min";
	current_uptime "0 min";
	Norton_dynamic "FALSE";
	generator_dynamic "FALSE";
	reset_disabled_island_state "FALSE";
	GFA_enable "FALSE";
	GFA_freq_low_trip "59.5 Hz";
	GFA_freq_high_trip "60.5 Hz";
	GFA_volt_low_trip "0.8 pu";
	GFA_volt_high_trip "1.2 pu";
	GFA_reconnect_time "300 s";
	GFA_freq_disconnect_time "0.2 s";
	GFA_volt_disconnect_time "0.2 s";
	GFA_status "TRUE";
	GFA_trip_method "NONE";
	voltage_violation_threshold "0.05 pu";
	undervoltage_violation_threshold "0 pu";
	overvoltage_violation_threshold "0 pu";
	voltage_fluctuation_threshold "0.03 pu";
	DER_value "0+0j VA";
	phases "ABCN";
	nominal_voltage "2401.78 V";
	violation_detected "NONE";
}
object node
{
	name "node_81";
	groupid "nodevolts";
	rng_state "1474833169";
	guid "262E5301D43F7FFC";
	bustype "PQ";
	busflags "HASSOURCE";
	maximum_voltage_error "0.240178 V";
	voltage_A "2356.24-107.711j V";
	voltage_B "-1207.63-1949.08j V";
	voltage_C "-1061.42+2063.62j V";
	voltage_AB "3563.87+1841.37j V";
	voltage_BC "-146.207-4012.7j V";
	voltage_CA "-3417.67+2171.33j V";
	mean_repair_time "0 s";
	frequency_measure_type "NONE";
	sfm_Tf "0.01 s";
	pll_Kp "10 pu";
	pll_Ki "100 pu";
	measured_angle_A "0 rad";
	measured_frequency_A "60 Hz";
	measured_angle_B "0 rad";
	measured_frequency_B "60 Hz";
	measured_angle_C "0 rad";
	measured_frequency_C "60 Hz";
	measured_frequency "60 Hz";
	service_status "IN_SERVICE";
	service_status_double "-1";
	previous_uptime "-1 min";
	current_uptime "0 min";
	Norton_dynamic "FALSE";
	generator_dynamic "FALSE";
	reset_disabled_island_state "FALSE";
	GFA_enable "FALSE";
	GFA_freq_low_trip "59.5 Hz";
	GFA_freq_high_trip "60.5 Hz";
	GFA_volt_low_trip "0.8 pu";
	GFA_volt_high_trip "1.2 pu";
	GFA_reconnect_time "300 s";
	GFA_freq_disconnect_time "0.2 s";
	GFA_volt_disconnect_time "0.2 s";
	GFA_status "TRUE";
	GFA_trip_method "NONE";
	voltage_violation_threshold "0.05 pu";
	undervoltage_violation_threshold "0 pu";
	overvoltage_violation_threshold "0 pu";
	voltage_fluctuation_threshold "0.03 pu";
	DER_value "0+0j VA";
	phases "ABCN";
	nominal_voltage "2401.78 V";
	violation_detected "NONE";
}
object node
{
	name "node_89";
	groupid "nodevolts";
	rng_state "1264817709";
	guid "72D9DCBB7E932F9C";
	bustype "PQ";
	busflags "HASSOURCE";
	maximum_voltage_error "0.240178 V";
	voltage_A "2351.26-103.926j V";
	voltage_B "-1212.1-1936.1j V";
	voltage_C "-1069.43+2070.67j V";
	voltage_AB "3563.37+1832.18j V";
	voltage_BC "-142.673-4006.78j V";
	voltage_CA "-3420.69+2174.6j V";
	mean_repair_time "0 s";
	frequency_measure_type "NONE";
	sfm_Tf "0.01 s";
	pll_Kp "10 pu";
	pll_Ki "100 pu";
	measured_angle_A "0 rad";
	measured_frequency_A "60 Hz";
	measured_angle_B "0 rad";
	measured_frequency_B "60 Hz";
	measured_angle_C "0 rad";
	measured_frequency_C "60 Hz";
	measured_frequency "60 Hz";
	service_status "IN_SERVICE";
	service_status_double "-1";
	previous_uptime "-1 min";
	current_uptime "0 min";
	Norton_dynamic "FALSE";
	generator_dynamic "FALSE";
	reset_disabled_island_state "FALSE";
	GFA_enable "FALSE";
	GFA_freq_low_trip "59.5 Hz";
...